*Heading
** Job name: SingleCrack_sub Model name: Model-1
** Generated by: Abaqus/CAE 6.14-1
*Preprint, echo=NO, model=NO, history=NO, contact=NO
**
** PARTS
**
*Part, name=Part-1
*Node
      1,          0.5, -0.0850000009
      2, -0.0500000007, -0.0850000009
      3, -0.0500000007, -0.000500000024
      4,         -0.5, -0.000500000024
      5,         -0.5,         -0.5
      6,          0.5,         -0.5
      7, -0.0500000007, 0.000500000024
      8, -0.0500000007, 0.0850000009
      9,          0.5, 0.0850000009
     10,          0.5,          0.5
     11,         -0.5,          0.5
     12,         -0.5, 0.000500000024
     13,          0.5, -0.075000003
     14, -0.0399999991, -0.075000003
     15, -0.0399999991, -0.000500000024
     16,          0.5,           0.
     17,  -1.02445136e-11,           0.
     18,           0., -0.000500000024
     19,          0.5, -0.0250000004
     20, -0.0399999991, 0.000500000024
** ... 13686 like lines cut
**Triangular element U1, quadrilateral element U2  
*********************** TRIANGULAR ****************************
*User element, nodes=3, type=U1, properties=5, coordinates=2, VARIABLES=9
1,2
1,4
***************************************************************
*********************** RECTENGULAR ***************************
*User element, nodes=4, type=U2, properties=5, coordinates=2, VARIABLES=12
1,2
1,4
***************************************************************
***************************************************************
*Element, type=U1
1, 4280, 4195, 4163
2, 7305, 3899, 1982
3, 6845, 3090, 6553
4, 4227, 4208, 2032
5, 770,  17, 18
6, 4534,  780, 781
7, 18, 2068, 770
8, 5500, 5330, 5329
9, 5566, 2302, 4878
10, 4801, 2306, 2067
11, 5100, 2078, 4671
12, 2309, 4829, 4831
13, 5836, 5567, 2432
14, 5823, 5592, 5468
15, 4912, 2221, 4665
16, 6462, 6089, 5938
17, 6416, 2499, 6341
18, 5011, 5663, 6059
19, 6225, 5918, 6389
20, 5696, 2643, 5694
** ... 470 like lines cut
***************************************************************
*Element, type=U2
491, 4385, 4386,  797, 798
492, 2638, 4809, 3108, 777
493, 3164, 2036, 5348, 4268
494, 774, 4364,  213, 13
495, 213, 4364, 4361, 214
496, 3106, 3161, 4275, 3107
497, 5348, 4354, 4352, 4268
498, 4306,  215,  214, 4361
499, 3643, 3401, 6934, 3641
500, 2065, 4349, 4257, 4284
501, 216, 4329, 4307, 217
502, 2065, 4307, 4329, 4349
503, 3829, 3632, 3745, 7550
504, 4308,  218,  217, 4307
505, 4308, 4307, 2065, 4330
506, 2915, 3113, 3111, 2987
507, 3813, 3927, 3909, 3825
508, 2064, 4186, 4128, 2063
509, 218, 4308, 4309, 219
510, 348, 2179, 4460, 347
** ... 12060 like lines cut
**
**  umat for visualization (UEL)
********************* UMAT tri ***********************************
*Element, type=CPE3
12571, 4280, 4195, 4163
12572, 7305, 3899, 1982
12573, 6845, 3090, 6553
12574, 4227, 4208, 2032
12575, 770,  17, 18
12576, 4534,  780, 781
12577, 18, 2068, 770
12578, 5500, 5330, 5329
12579, 5566, 2302, 4878
12580, 4801, 2306, 2067
12581, 5100, 2078, 4671
12582, 2309, 4829, 4831
12583, 5836, 5567, 2432
12584, 5823, 5592, 5468
12585, 4912, 2221, 4665
12586, 6462, 6089, 5938
12587, 6416, 2499, 6341
12588, 5011, 5663, 6059
12589, 6225, 5918, 6389
12590, 5696, 2643, 5694
** ... 470 like lines cut
********************* UMAT quad ***********************************
*Element, type=CPE4
13061, 4385, 4386,  797, 798
13062, 2638, 4809, 3108, 777
13063, 3164, 2036, 5348, 4268
13064, 774, 4364,  213, 13
13065, 213, 4364, 4361, 214
13066, 3106, 3161, 4275, 3107
13067, 5348, 4354, 4352, 4268
13068, 4306,  215,  214, 4361
13069, 3643, 3401, 6934, 3641
13070, 2065, 4349, 4257, 4284
13071, 216, 4329, 4307, 217
13072, 2065, 4307, 4329, 4349
13073, 3829, 3632, 3745, 7550
13074, 4308,  218,  217, 4307
13075, 4308, 4307, 2065, 4330
13076, 2915, 3113, 3111, 2987
13077, 3813, 3927, 3909, 3825
13078, 2064, 4186, 4128, 2063
13079, 218, 4308, 4309, 219
13080, 348, 2179, 4460, 347
** ... 12060 like lines cut
** 
** non umat for linear elastic model
********************* non UMAT tri ***********************************
*Element, type=CPE3
25141, 1138, 1088, 1087
25142, 1205, 1147, 1204
25143, 1339, 1292, 1295
25144, 1238, 1224, 1279
25145, 1335, 1289, 1284
25146, 1414, 1293, 1338
25147, 1239, 1414, 1340
25148, 1347, 1307, 1305
25149, 1388, 1386, 1367
25150, 1418, 1361, 1364
25151, 1386, 1384, 1354
25152, 1325, 1422, 1273
25153, 1674, 1736, 1790
25154, 1729, 1668, 1662
25155, 1929, 1779, 1657
25156, 1892, 1888, 1845
25157, 1775, 1828, 1783
25158, 1853, 1805, 1851
25159, 1930, 1867, 1779
25160, 1841, 1878, 1882
** ... 90 like lines cut
********************* non UMAT quad ***********************************
*Element, type=CPE4
25251, 903, 112, 113, 910
25252, 67, 902, 900, 66
25253, 1052, 1176,  913, 990
25254, 44,   45, 1176, 892
25255, 112, 903, 908, 111
25256, 1050, 1118,  976, 909
25257, 1051, 1050,  909, 975
25258, 1065,  938,  994, 1066
25259, 937, 995, 996, 936
25260, 97,  98, 936, 917
25261, 947, 1021, 1027, 951
25262, 94,  95, 934, 918
25263, 1026,  949,  948, 1034
25264, 91,  92, 932, 919
25265, 1082, 1086, 1016, 1009
25266, 88,  89, 930, 920
25267, 85,  86, 928, 921
25268, 999, 922, 925, 1003
25269, 925, 922,  81, 82
25270, 972,  71,  72, 901
** ... 1189 like lines cut
***************************************************************
*Elset, elset=elastic, generate
25141, 26402, 1
*Elset, elset=uel_sample
1,  2,  3,  4,  5,  6,  7,  8,  9, 10, 11, 12, 13, 14, 15, 16,
17, 18, 19, 20, 21, 22, 23, 24, 25, 26, 27, 28, 29, 30, 31, 32,
33, 34, 35, 36, 37, 38, 39, 40, 41, 42, 43, 44, 45, 46, 47, 48,
49, 50, 51, 52, 53, 54, 55, 56, 57, 58, 59, 60, 61, 62, 63, 64,
65, 66, 67, 68, 69, 70, 71, 72, 73, 74, 75, 76, 77, 78, 79, 80,
81, 82, 83, 84, 85, 86, 87, 88, 89, 90, 91, 92, 93, 94, 95, 96,
97,  98,  99, 100, 101, 102, 103, 104, 105, 106, 107, 108, 109, 110, 111, 112,
113, 114, 115, 116, 117, 118, 119, 120, 121, 122, 123, 124, 125, 126, 127, 128,
129, 130, 131, 132, 133, 134, 135, 136, 137, 138, 139, 140, 141, 142, 143, 144,
145, 146, 147, 148, 149, 150, 151, 152, 153, 154, 155, 156, 157, 158, 159, 160,
161, 162, 163, 164, 165, 166, 167, 168, 169, 170, 171, 172, 173, 174, 175, 176,
177, 178, 179, 180, 181, 182, 183, 184, 185, 186, 187, 188, 189, 190, 191, 192,
193, 194, 195, 196, 197, 198, 199, 200, 201, 202, 203, 204, 205, 206, 207, 208,
209, 210, 211, 212, 213, 214, 215, 216, 217, 218, 219, 220, 221, 222, 223, 224,
225, 226, 227, 228, 229, 230, 231, 232, 233, 234, 235, 236, 237, 238, 239, 240,
241, 242, 243, 244, 245, 246, 247, 248, 249, 250, 251, 252, 253, 254, 255, 256,
257, 258, 491, 492, 493, 494, 495, 496, 497, 498, 499, 500, 501, 502, 503, 504,
505, 506, 507, 508, 509, 510, 511, 512, 513, 514, 515, 516, 517, 518, 519, 520,
521, 522, 523, 524, 525, 526, 527, 528, 529, 530, 531, 532, 533, 534, 535, 536,
537, 538, 539, 540, 541, 542, 543, 544, 545, 546, 547, 548, 549, 550, 551, 552,
** ... 766 like lines cut
*Elset, elset=tran
25165, 25166, 25167, 25168, 25169, 25170, 25171, 25172, 25173, 25174, 25175, 25176, 25177, 25178, 25179, 25180,
25181, 25182, 25183, 25184, 25185, 25186, 25187, 25188, 25189, 25190, 25191, 25192, 25193, 25194, 25195, 25196,
25197, 25198, 25199, 25200, 25201, 25202, 25203, 25204, 25205, 25206, 25207, 25208, 26403, 26404, 26405, 26406,
26407, 26408, 26409, 26410, 26411, 26412, 26413, 26414, 26415, 26416, 26417, 26418, 26419, 26420, 26421, 26422,
26423, 26424, 26425, 26426, 26427, 26428, 26429, 25209, 25210, 25211, 25212, 25213, 25214, 25215, 25216, 25217,
25218, 25219, 25220, 25221, 25222, 25223, 25224, 25225, 25226, 25227, 25228, 25229, 25230, 25231, 25232, 25233,
25234, 25235, 25236, 25237, 25238, 25239, 25240, 25241, 25242, 25243, 25244, 25245, 25246, 25247, 25248, 25249,
25250, 26430, 26431, 26432, 26433, 26434, 26435, 26436, 26437, 26438, 26439, 26440, 26441, 26442, 26443, 26444,
26445, 26446, 26447, 26448, 26449, 26450, 26451, 26452, 26453, 26454, 26455, 26456, 26457, 26458, 26459
*Elset, elset=umatelem, generate
12571, 25140, 1
***************************************************************
********************** ASSIGNING MATERIAL PROP ****************
***************************************************************
*Uel property, elset=uel_sample
210000, 0.3, 0, 0.0075, 2.7
**E, nu, at, lc, gc
***************************************************************
*Solid Section, elset=elastic, material=elastic
,
** Section: Section-elastic
*Solid Section, elset=tran, material=elastic
,
** Section: Section-uel
*Solid Section, elset=umatelem, material=uelmat
1.0
*End Part
**  
**
** ASSEMBLY
**
*Assembly, name=Assembly
**  
*Instance, name=Part-1-1, part=Part-1
*End Instance
**  
*Node
      1,           0.,  0.550000012,           0.
*Nset, nset=BTM, instance=Part-1-1
   5,   6,  74,  75,  76,  77,  78,  79,  80,  81,  82,  83,  84,  85,  86,  87
  88,  89,  90,  91,  92,  93,  94,  95,  96,  97,  98,  99, 100, 101, 102, 103
 104, 105
*Elset, elset=BTM, instance=Part-1-1
25260, 25262, 25264, 25266, 25267, 25269, 25271, 25291, 25293, 25296, 25297, 25299, 25300, 25304, 25305, 25307,
25309, 25311, 25314, 25315, 25319, 25320, 25322, 25346, 25359, 25370, 25373, 25375, 25377, 25381, 25383, 25388,
25437,
*Nset, nset=BTM_L, instance=Part-1-1
 5,
*Nset, nset=BTM_R, instance=Part-1-1
 6,
*Nset, nset=RP
 1,
*Nset, nset=Set-6, instance=Part-1-1
    1,    2,    3,    7,    8,    9,   13,   14,   15,   20,   21,   22,   25,   26,   27,   28
   29,   30,   31,   32,   33,   34,   35,   36,   37,   38,   39,   40,   41,   42,   43,  119
  120,  121,  122,  123,  124,  125,  126,  127,  128,  129,  130,  131,  132,  133,  134,  135
  136,  137,  213,  214,  215,  216,  217,  218,  219,  220,  221,  222,  223,  224,  225,  226
  227,  228,  229,  230,  231,  232,  233,  234,  235,  236,  237,  238,  239,  240,  241,  242
  243,  244,  245,  246,  247,  248,  249,  250,  251,  252,  253,  254,  255,  256,  257,  258
  259,  260,  261,  262,  263,  264,  265,  266,  267,  268,  269,  270,  271,  802,  803,  804
  805,  806,  807,  808,  809,  810,  811,  812,  813,  814,  815,  816,  817,  818,  819,  820
  821,  822,  823,  824,  825,  826,  827,  828,  829,  830,  831,  832,  833,  834,  835,  836
  837,  838,  839,  840,  841,  842,  843,  844,  845,  846,  847,  848,  849,  850,  851,  852
  853,  854,  855,  856,  857,  858,  859,  860, 1958, 1959, 1960, 1961, 1962, 1963, 1964, 1965
 7813, 7814, 7815, 7816, 7817, 7818, 7819, 7820, 7821, 7822
*Elset, elset=Set-6, instance=Part-1-1
25165, 25166, 25167, 25168, 25169, 25170, 25171, 25172, 25173, 25174, 25175, 25176, 25177, 25178, 25179, 25180,
25181, 25182, 25183, 25184, 25185, 25186, 25187, 25188, 25189, 25190, 25191, 25192, 25193, 25194, 25195, 25196,
25197, 25198, 25199, 25200, 25201, 25202, 25203, 25204, 25205, 25206, 25207, 25208, 26403, 26404, 26405, 26406,
26407, 26408, 26409, 26410, 26411, 26412, 26413, 26414, 26415, 26416, 26417, 26418, 26419, 26420, 26421, 26422,
26423, 26424, 26425, 26426, 26427, 26428, 26429, 25209, 25210, 25211, 25212, 25213, 25214, 25215, 25216, 25217,
25218, 25219, 25220, 25221, 25222, 25223, 25224, 25225, 25226, 25227, 25228, 25229, 25230, 25231, 25232, 25233,
25234, 25235, 25236, 25237, 25238, 25239, 25240, 25241, 25242, 25243, 25244, 25245, 25246, 25247, 25248, 25249,
25250, 26430, 26431, 26432, 26433, 26434, 26435, 26436, 26437, 26438, 26439, 26440, 26441, 26442, 26443, 26444,
26445, 26446, 26447, 26448, 26449, 26450, 26451, 26452, 26453, 26454, 26455, 26456, 26457, 26458, 26459,
*Nset, nset=TOP, instance=Part-1-1
  10,  11, 151, 152, 153, 154, 155, 156, 157, 158, 159, 160, 161, 162, 163, 164
 165, 166, 167, 168, 169, 170, 171, 172, 173, 174, 175, 176, 177, 178, 179, 180
 181, 182
*Elset, elset=TOP, instance=Part-1-1
25826, 25827, 25831, 25835, 25836, 25837, 25850, 25853, 25856, 25857, 25860, 25862, 25867, 25869, 25871, 25872,
25873, 25874, 25879, 25882, 25887, 25888, 25919, 25921, 25937, 25941, 25945, 25949, 25952, 25955, 25957, 25962,
25966,
*Nset, nset=transition, instance=Part-1-1
    1,    2,    3,    7,    8,    9,   13,   14,   15,   20,   21,   22,   25,   26,   27,   28
   29,   30,   31,   32,   33,   34,   35,   36,   37,   38,   39,   40,   41,   42,   43,  119
  120,  121,  122,  123,  124,  125,  126,  127,  128,  129,  130,  131,  132,  133,  134,  135
  136,  137,  213,  214,  215,  216,  217,  218,  219,  220,  221,  222,  223,  224,  225,  226
  227,  228,  229,  230,  231,  232,  233,  234,  235,  236,  237,  238,  239,  240,  241,  242
  243,  244,  245,  246,  247,  248,  249,  250,  251,  252,  253,  254,  255,  256,  257,  258
  259,  260,  261,  262,  263,  264,  265,  266,  267,  268,  269,  270,  271,  802,  803,  804
  805,  806,  807,  808,  809,  810,  811,  812,  813,  814,  815,  816,  817,  818,  819,  820
  821,  822,  823,  824,  825,  826,  827,  828,  829,  830,  831,  832,  833,  834,  835,  836
  837,  838,  839,  840,  841,  842,  843,  844,  845,  846,  847,  848,  849,  850,  851,  852
  853,  854,  855,  856,  857,  858,  859,  860, 1958, 1959, 1960, 1961, 1962, 1963, 1964, 1965
 7813, 7814, 7815, 7816, 7817, 7818, 7819, 7820, 7821, 7822
*Elset, elset=transition, instance=Part-1-1
25165, 25166, 25167, 25168, 25169, 25170, 25171, 25172, 25173, 25174, 25175, 25176, 25177, 25178, 25179, 25180,
25181, 25182, 25183, 25184, 25185, 25186, 25187, 25188, 25189, 25190, 25191, 25192, 25193, 25194, 25195, 25196,
25197, 25198, 25199, 25200, 25201, 25202, 25203, 25204, 25205, 25206, 25207, 25208, 26403, 26404, 26405, 26406,
26407, 26408, 26409, 26410, 26411, 26412, 26413, 26414, 26415, 26416, 26417, 26418, 26419, 26420, 26421, 26422,
26423, 26424, 26425, 26426, 26427, 26428, 26429, 25209, 25210, 25211, 25212, 25213, 25214, 25215, 25216, 25217,
25218, 25219, 25220, 25221, 25222, 25223, 25224, 25225, 25226, 25227, 25228, 25229, 25230, 25231, 25232, 25233,
25234, 25235, 25236, 25237, 25238, 25239, 25240, 25241, 25242, 25243, 25244, 25245, 25246, 25247, 25248, 25249,
25250, 26430, 26431, 26432, 26433, 26434, 26435, 26436, 26437, 26438, 26439, 26440, 26441, 26442, 26443, 26444,
26445, 26446, 26447, 26448, 26449, 26450, 26451, 26452, 26453, 26454, 26455, 26456, 26457, 26458, 26459,
** Constraint: Constraint-1
*Equation
2
TOP, 2, 1.
RP, 2, -1.
**
*Elset, elset=umatelem, instance=Part-1-1, generate
12571, 25140, 1
*Elset, elset=allelem, instance=Part-1-1, generate
12571, 26459, 1
**
*End Assembly
***************************************************************
** 
** MATERIALS
** 
*Material, name=elastic
*Elastic
210000., 0.3
*Material, name=uelmat
*Depvar
      3,
*User Material, constants=1
0.,
** 
** BOUNDARY CONDITIONS
** 
** Name: pre-load Type: Displacement/Rotation
*Boundary
transition, 4, 4
** ----------------------------------------------------------------
** 
** STEP: Step-1
** 
*Step, name=Step-1, nlgeom=NO, inc=1000
*Static
0.01, 1., 1e-09, 0.01
*Solution Technique, type=QUASI-NEWTON, reform kernel=25
** 
** BOUNDARY CONDITIONS
** 
** Name: BTM_FIX Type: Displacement/Rotation
*Boundary
BTM, 1, 1
BTM, 2, 2
** Name: LOAD Type: Displacement/Rotation
*Boundary
RP, 1, 1
RP, 2, 2, 0.008
** Name: pre-load Type: Displacement/Rotation
*Boundary
transition, 4, 4
** 
** CONTROLS
** 
*Controls, reset
*Controls, parameters=time incrementation
10000, 10000, 8000, 1000, 5000, 5, , 10, , , 
** 
** OUTPUT REQUESTS
** 
*Restart, write, frequency=0
** 
** FIELD OUTPUT: F-Output-1
** 
*Output, field
*Node Output
RF, U, A, V
*Element Output, elset=allelem, directions=YES
SDV, 
** 
** HISTORY OUTPUT: H-Output-1
** 
*element output, elset=umatelem
SDV
*Element Output, elset=umatelem, Position=Integration Points
COORD, IVOL
**
*Output, history, variable=PRESELECT
*End Step
